.MODEL SA1381 pnp IS=5.5544E-14 BF=148 BR=1.892 ISE=2.0546E-15 NE=1.5 ISC=2.04807E-09 NC=1.5 VAF=580 VAR=100 IKF=0.2163 IKR=0.187544 RB=10.18 RBM=0.02 IRB=2.0e-6 RE=0.0512 RC=3.572 CJE=9.572E-12 VJE=0.748 MJE=0.371 FC=0.5 CJC=1.147E-11 VJC=0.541 MJC=0.329 TF=8.0312E-10 XTB=0.907 EG=0.62 XTI=3
.MODEL SC3503 NPN IS=7.010E-13 BF=156.09 VAF=600 IKF=0.12325 ISE=1.2538E-14 NE=1.5 BR=0.64499 VAR=100 IKR=0.05102 ISC=6.4644E-09 NC=1.5 RE=0.108 RC=1.215 RB=12.134 RBM=0.034 IRB=3.0e-6 CJE=7.10E-12 CJC=8.20E-12 TF=7.025E-10 XTF=2 VTF=35 ITF=1 TR=1.0E-8 EG=0.76 XTB=1.5 FC=0.5
.MODEL Q2SA1837_x PNP ( IS=2.39372559E-10 NF=1.304015937 BF=300 VAF=273 IKF=2.087725944 NK=0.94719458 ISE=1.46829699E-11 NE=1.526663542 BR=4 NR=1 VAR=20 IKR=1.05 RE=0 RB=1.8 RC=1.65 CJE=4.7407E-10 VJE=1.1 MJE=0.5 CJC=8.6700E-11 VJC=0.3 MJC=0.3 TF=1.642191E-09 FC=0.5 ITF=1.076260106 XTF=5.868994022 TR=1.38U)
.MODEL Q2SC4793_x NPN ( IS=1.8E-09 NF=1.43 BF=146.38 VAF=273 IKF=2.6 NK=0.95 ISE=6.286997E-10 NE=2.223629 BR=4 NR=1 VAR=20 IKR=1.05 RE=0 RB=1.7 RC=1.25 CJE=5.96964E-10 VJE=1.1 MJE=0.5 CJC=5.78E-11 VJC=0.3 MJC=0.3 TF=1.22678E-09 FC=0.5 ITF=10 XTF=99.52253015 TR=983N)
.MODEL KSC1845 npn IS=1.075431E-13 BF=600.7 NF=1 BR=13.565 NR=1 ISE=1.98107E-13 NE=2 ISC=1.8378E-11 NC=1.5 VAF=82.803 VAR=20.6691 IKF=0.596 IKR=0.0190546 RB=157 RBM=12.092 IRB=1.258925E-6 RE=1.5 RC=180.7 CJE=2.057447E-11 VJE=0.7300286 MJE=0.3619943 FC=0.5 CJC=4.525739E-12 VJC=0.5 MJC=0.3659045 XTB=1.7281 EG=1.1809 XTI=3 TF=3.14E-11
.MODEL KSA992 pnp ( IS=5.7544E-14 BF=348.1 NF=1 BR=3.62 NR=0.95 ISE=5.7544E-15 NE=1.5 ISC=1.8378E-14 NC=1 VAF=144 VAR=16.68 IKF=0.298 IKR=0.0525 RB=140 RBM=16.084 IRB=1.4125E-3 RE=0.38 RC=0.47 CJE=2.3093E-11 VJE=0.855 MJE=0.4104 FC=0.5 CJC=8.9251E-12 VJC=0.5 MJC=0.3497 CJS=0 VJS=0.8 MJS=0.33 XTB=1.2849 EG=1.1603 XTI=3 XCJC=0.3062 )
.model 2N5769_k NPN(Is=1.2f Xti=3 Eg=1.16 Vaf=100 Bf=88 Rb=45 Ikf=200m Ise=33f Ne=1.7 Xtb=1.7 Br=1.365 Nc=2 Isc=0 Ikr=0 Rc=.6 Cjc=2.83p Mjc=86.19m Vjc=.75 Fc=.5 Cje=4.5p Mje=.2418 Vje=.75 Tr=1.073u Tf=227.6p Itf=.3 Vtf=4 Xtf=4 Vceo=15 Icrating=200m mfg=Fairchild)
.model 2N5771_k PNP(Is=1.2f Xti=3 Eg=1.16 Vaf=100 Bf=125 Rb=45 Ikf=100m Ise=62f Ne=1.7 Xtb=1.7 Br=1.365 Nc=2 Isc=0 Ikr=0 Rc=3.75 Cjc=2.77p Mjc=.1416 Vjc=.75 Fc=.5 Cje=2.65p Mje=.3083 Vje=.75 Tr=4.033n Tf=118.5p Itf=.5 Vtf=3 Xtf=6 Rb=10 Vceo=15 Icrating=200m mfg=Fairchild)
.model MPSW42 NPN(Is=34.9f Xti=3 Eg=1.11 Vaf=100 Bf=3.069K Ne=1.205 Ise=34.9f Ikf=.1435 Xtb=1.5 Br=6.726 Nc=2 Isc=0 Ikr=0 Rc=7 Cjc=14.62p Mjc=.4962 Vjc=.75 Fc=.5 Cje=57.62p Mje=.3536 Vje=.75 Tr=1.42n Tf=2.056n Itf=.9 Vtf=22 Xtf=270 Rb=10)
.model MPSW92 PNP(Is=40.74f Xti=3 Eg=1.11 Vaf=100 Bf=105 Ne=1.326 Ise=40.74f Ikf=.6228 Xtb=1.5 Br=4.15 Nc=2 Isc=0 Ikr=0 Rc=10 Cjc=31.63p Mjc=.5163 Vjc=.75 Fc=.5 Cje=88.56p Mje=.2744 Vje=.75 Tr=2.212n Tf=1.654n Itf=2.2 Vtf=22 Xtf=350 Rb=10)
.MODEL 2SK1058 NMOS (VTO=403.969M KP=20U L=2U W=29.7482M GAMMA=0 PHI=600M
+ LAMBDA=184.988F RD=60.8251M CBD=2.56138N IS=10F CGSO=1.13517N CGDO=1.13517N
+ TOX=0 NSUB=0 TPG=1 UO=600 RG=50 RDS=1MEG )

.MODEL 2SJ162 PMOS (VTO=842.193M KP=20U L=2U W=21.3317M GAMMA=0 PHI=600M
+ LAMBDA=20.7067M RD=837.199M CBD=2.96862N IS=10F CGSO=1.13517N CGDO=1.13517N
+ TOX=0 NSUB=0 TPG=1 UO=600 RG=50 RDS=1MEG )

.MODEL ECX10N16 NMOS (LEVEL=1 VTO=-66.415M KP=20U L=2U W=76.3794M GAMMA=0
+ PHI=600M LAMBDA=3.44617M RD=244.181M RS=178.517M IS=10F CGSO=100P CGDO=100P
+ TOX=0 NSUB=0 TPG=1 UO=600 KAPPA=200M RG=367.902 RDS=16.0012K )

.MODEL ECX10P16 PMOS (LEVEL=1 VTO=56.1959M KP=20U L=2U W=49.9039M GAMMA=0
+ PHI=600M LAMBDA=16.6941M RD=458.28M RS=214.674M CBD=1.00674N IS=10F CGSO=100P
+ CGDO=100P TOX=0 NSUB=0 TPG=1 UO=600 KAPPA=200M RG=35.8793 RDS=1MEG )
.MODEL LSK170A NJF BETA = 0.0378643 VTO = -0.4025156 LAMBDA = 4.783719E-3 IS = 3.55773E-14 N = 1 RD = 10.6565 RS = 6.8790487 CGD = 3.99E-11 CGS = 4.06518E-11 PB = 0.981382 MJ = 0.794653 FC = 0.5 KF = 0 AF = 1

.MODEL LSK170B NJF
+ BETA = 0.0350699 VTO = -0.5375582 LAMBDA = 4.951E-3
+ IS = 2.76212E-14 N = 1
+ ACM = 0 RD = 7.82168 RS = 6.9525888
+ CGD = 4.36E-11 CGS = 4.36E-11
+ PB = 1.2 MJ = 0.8892205 FC = 0.5
+ KF = 0 AF = 1
.MODEL LSK389A NJF BETA=0.0378643 VTO=-0.4025156 LAMBDA=4.783719E-3 IS=3.55773E-14 N=1 RD=10.6565 RS=6.8790487 CGD=3.99E-11 CGS=4.06518E-11 PB=0.981382 MJ=0.794653 FC=0.5 KF=0 AF=1
.MODEL LSK389B NJF BETA=0.0350699 VTO=-0.5375582 LAMBDA=4.951E-3 IS=2.76212E-14 N=1 RD=7.82168 RS=6.9525888 CGD=4.36E-11 CGS=4.36E-11 PB=1.2 MJ=0.8892205 FC=0.5 KF=0 AF=1
.MODEL LSK389C NJF BETA=0.0278541 VTO=-0.800434 LAMBDA=0.0122435 IS=2.45217E-14 N=1 RD=12 RS=5.8 CGD=4.22E-11 CGS=4.23E-11 PB=0.9265487 MJ=0.6098477 FC=0.5 KF=0 AF=1
.model J201 NJF(Beta=1.621m Betatce=-.5 Rd=1 Rs=1 Lambda=2.236m Vto=-.6 Vtotc=-2.5m Is=114.5f Isr=1.091p N=1 Nr=2 Xti=3 Alpha=506.8u Vk=251.7 Cgd=4.667p M=.2271 Pb=.5 Fc=.5 Cgs=2.992p Kf=604.2E-18 Af=1)

