Version 4
SHEET 1 1048 840
WIRE -272 -320 -768 -320
WIRE 16 -320 -208 -320
WIRE -272 -224 -512 -224
WIRE 16 -224 16 -320
WIRE 16 -224 -208 -224
WIRE -768 -208 -768 -320
WIRE -768 -208 -896 -208
WIRE -688 -208 -768 -208
WIRE -512 -208 -512 -224
WIRE -512 -208 -608 -208
WIRE -512 -176 -512 -208
WIRE -896 -128 -896 -208
WIRE -272 -128 -336 -128
WIRE 16 -128 16 -224
WIRE 16 -128 -208 -128
WIRE -512 -64 -512 -96
WIRE -448 -64 -512 -64
WIRE -336 -48 -336 -128
WIRE -144 -48 -336 -48
WIRE -448 -32 -448 -64
WIRE -144 -16 -144 -48
WIRE -896 0 -896 -48
WIRE -512 48 -512 -64
WIRE -768 96 -768 -208
WIRE -656 96 -768 96
WIRE -592 96 -656 96
WIRE -448 96 -448 32
WIRE -448 96 -496 96
WIRE -416 96 -448 96
WIRE -336 96 -336 -48
WIRE -272 96 -336 96
WIRE 16 96 16 -128
WIRE 16 96 -16 96
WIRE 128 96 16 96
WIRE 288 96 128 96
WIRE 400 96 400 48
WIRE 400 96 288 96
WIRE 512 96 400 96
WIRE 560 96 512 96
WIRE 656 96 560 96
WIRE -656 112 -656 96
WIRE 560 128 560 96
WIRE 288 144 288 96
WIRE 400 144 400 96
WIRE -336 176 -336 96
WIRE -768 192 -768 96
WIRE 128 192 128 96
WIRE -656 240 -656 192
WIRE 400 240 400 208
WIRE -144 256 -144 208
WIRE -144 256 -224 256
WIRE -48 256 -144 256
WIRE -336 288 -336 240
WIRE 560 288 560 208
WIRE -224 304 -224 256
WIRE -48 320 -48 256
WIRE -768 336 -768 256
WIRE -656 336 -656 304
WIRE 288 336 288 224
WIRE 512 352 512 96
WIRE 512 368 512 352
WIRE -224 416 -224 384
WIRE -144 416 -224 416
WIRE -48 416 -48 384
WIRE -48 416 -144 416
WIRE -144 448 -144 416
WIRE 128 448 128 272
WIRE 128 448 -144 448
WIRE 288 448 288 416
WIRE 288 448 128 448
WIRE 288 480 288 448
WIRE -144 560 -144 448
WIRE 288 592 288 560
WIRE 512 592 512 416
WIRE 512 592 288 592
WIRE 288 624 288 592
WIRE -144 720 -144 640
WIRE 288 720 288 688
WIRE 288 720 -144 720
WIRE -144 768 -144 720
FLAG -144 768 0
FLAG -336 288 0
FLAG 400 240 0
FLAG -656 336 0
FLAG -768 336 0
FLAG -896 0 0
FLAG 656 96 out
IOPIN 656 96 Out
FLAG 400 48 001
FLAG 560 288 0
DATAFLAG 288 448 ""
DATAFLAG 400 96 ""
DATAFLAG -768 -64 ""
SYMBOL PowerProducts\\LT3080 -144 96 R0
SYMATTR InstName U1
SYMBOL res -592 -224 R90
WINDOW 0 0 56 VBottom 2
WINDOW 3 51 52 VTop 2
SYMATTR InstName R1
SYMATTR Value 68k
SYMBOL res -496 -80 R180
WINDOW 0 36 76 Left 2
WINDOW 3 32 47 Left 2
SYMATTR InstName R2
SYMATTR Value 220
SYMBOL res -432 112 R270
WINDOW 0 40 64 VTop 2
WINDOW 3 0 56 VBottom 2
SYMATTR InstName R3
SYMATTR Value 18
SYMBOL res 272 128 R0
SYMATTR InstName R4
SYMATTR Value 2.5k
SYMBOL res 112 176 R0
WINDOW 3 43 81 Left 2
SYMATTR Value 1.18k
SYMATTR InstName R5
SYMBOL res 272 320 R0
SYMATTR InstName R6
SYMATTR Value 4.99k
SYMBOL res -240 288 R0
WINDOW 3 51 86 Left 2
SYMATTR Value 100k
SYMATTR InstName R7
SYMBOL res 272 464 R0
SYMATTR InstName R8
SYMATTR Value 100
SYMBOL res -160 544 R0
SYMATTR InstName R9
SYMATTR Value 470k
SYMBOL nmos -592 48 M90
WINDOW 3 -93 -13 Left 2
SYMATTR Value STP8NM60
SYMATTR InstName M1
SYMBOL zener -208 -240 R90
WINDOW 0 -4 32 VBottom 2
WINDOW 3 36 32 VTop 2
SYMATTR InstName D2
SYMATTR Value BZX84C10VL
SYMATTR Description Diode
SYMATTR Type diode
SYMBOL zener -208 -144 R90
WINDOW 0 -4 32 VBottom 2
WINDOW 3 36 32 VTop 2
SYMATTR InstName D1
SYMATTR Value BZX84C10VL
SYMATTR Description Diode
SYMATTR Type diode
SYMBOL zener -432 32 R180
WINDOW 0 24 64 Left 2
WINDOW 3 -66 109 Left 2
SYMATTR InstName D3
SYMATTR Value BZX84C10VL
SYMATTR Description Diode
SYMATTR Type diode
SYMBOL cap -64 320 R0
SYMATTR InstName C1
SYMATTR Value 100µ
SYMBOL cap 384 144 R0
SYMATTR InstName C2
SYMATTR Value 2.2µ
SYMBOL cap -352 176 R0
SYMATTR InstName C3
SYMATTR Value 1µ
SYMBOL cap 272 624 R0
SYMATTR InstName C4
SYMATTR Value 100n
SYMBOL cap -784 192 R0
SYMATTR InstName C5
SYMATTR Value 1µ
SYMBOL cap -672 240 R0
WINDOW 3 30 55 Left 2
SYMATTR Value 10µ
SYMATTR InstName C6
SYMBOL res -672 96 R0
SYMATTR InstName R10
SYMATTR Value 1
SYMBOL diode -208 -336 R90
WINDOW 0 0 32 VBottom 2
WINDOW 3 32 32 VTop 2
SYMATTR InstName D4
SYMATTR Value RRE02VS6S
SYMBOL voltage -896 -144 R0
WINDOW 123 0 0 Left 0
WINDOW 39 0 0 Left 0
SYMATTR InstName V1
SYMATTR Value 500
SYMBOL diode 528 416 R180
WINDOW 0 24 64 Left 2
WINDOW 3 24 0 Left 2
SYMATTR InstName D5
SYMATTR Value RRE02VS6S
SYMBOL current 560 128 R0
WINDOW 123 24 108 Left 2
WINDOW 39 0 0 Left 0
SYMATTR Value2 AC 25m
SYMATTR InstName I1
SYMATTR Value SINE(0 25m)
TEXT 568 -48 Left 2 !;op
TEXT 576 -16 Left 2 !.ac oct 100 10 10e6
TEXT 792 184 Left 2 !;dc oct V1 100 500 10
